         294
NSTEP=  10000000   15.4361   15.3940   15.4380
   Li          0.00000     0.00000     0.00000
   Li          4.15515    -1.14580    -4.96212
   Li         -6.56360    -6.36979     3.98016
   Li         -4.36165     4.70329    -7.59694
   Li          5.61330    -1.17270     5.85261
   Li         -3.29812    -6.23616    -1.44762
   Li          3.92355     2.61610    -5.68152
   Li         -2.11497    -1.71000     6.50009
   Li         -1.54844     2.61690    -2.16102
   O          -0.01753     5.22152    -5.42582
   F           1.76539     5.43539    -7.84381
   C           1.91408     6.36226    -6.90101
   S           0.36523     6.53775    -6.02879
   O          -0.56196     7.40225    -6.73716
   F           2.99983     6.15798    -6.11649
   N           0.52721     7.72215    -4.74632
   O           0.49977     7.30016    -2.24492
   F           2.09075     7.53317    -7.61954
   S           1.50174     7.29162    -3.36432
   O           2.05799     5.93062    -3.47842
   F           2.15199     9.74181    -3.07932
   F           3.79525     8.57737    -3.93582
   C           2.74399     8.55490    -3.12212
   F           3.32286     8.34634    -1.92092
   O          -4.96329     1.09730     7.33756
   F          -6.08090     0.36260    10.21798
   C          -6.69580     1.26950     9.40626
   S          -5.48940     2.02600     8.35638
   O          -4.57130     2.79420     9.18938
   F          -7.63400     0.54730     8.74094
   N          -6.06330     3.41870     7.43431
   O          -8.49440     2.44250     6.72386
   F          -7.39730     2.14450    10.19638
   S          -7.76570     3.74714     6.94963
   O          -8.22220     4.69966     7.99466
   F          -7.39640     5.84697     5.58534
   F          -9.09430     4.57991     4.94322
   C          -7.79260     4.57811     5.38101
   F          -7.03540     3.97811     4.43884
   O           6.38390    -4.32578    -3.12692
   F           5.15920    -4.99742    -0.44832
   C           6.53080    -5.03993    -0.47002
   S           7.09640    -4.07856    -1.90352
   O           8.56200    -4.08493    -1.89472
   F           6.99420    -4.47304     0.60579
   N           6.67540    -2.42869    -1.63872
   O           8.49250    -2.27072     0.16573
   F           6.95210    -6.32605    -0.47842
   S           7.71570    -1.36380    -0.66542
   O           8.56790    -0.65480    -1.67192
   F           7.16360     0.18450     1.35853
   F           5.79630    -1.37720     1.16010
   C           6.53590    -0.58910     0.40387
   F           5.62720     0.16650    -0.23082
   O          -6.27930    -1.32750     4.68651
   F          -5.57910    -0.05340     1.94509
   C          -5.12250     0.38160     3.14938
   S          -4.90396    -1.02730     4.29729
   O          -3.76225    -0.89050     5.20026
   F          -3.97726     0.94990     2.83281
   N          -4.46631    -2.51145     3.45318
   O          -3.96226    -2.74079     1.07341
   F          -5.89510     1.30790     3.66206
   S          -3.17509    -2.53384     2.27977
   O          -2.46287    -1.21620     2.37225
   F          -0.76144    -3.58374     2.27933
   F          -2.44287    -4.99383     2.48271
   C          -1.96079    -3.74167     2.77769
   F          -1.78262    -3.67223     4.07186
   O           3.92314    -2.59665     6.95912
   F           0.32697    -2.19443     8.22723
   C           1.37885    -3.04217     8.01259
   S           2.51976    -2.11635     7.00674
   O           2.37862    -0.66430     7.03845
   F           1.87567    -3.25571     9.25562
   N           1.83203    -2.45961     5.37075
   O           1.93957    -2.15115     2.78731
   F           0.84408    -4.13688     7.47143
   S           2.84102    -2.52534     3.92444
   O           3.97049    -1.71990     4.41498
   F           4.24430    -4.60941     4.63369
   F           4.29920    -4.27741     2.55648
   C           3.49022    -4.17390     3.62650
   F           2.52122    -5.15926     3.52807
   O          -4.44238     5.82009     5.84244
   F          -4.00773     3.86330     3.58309
   C          -3.46404     5.10624     3.38534
   S          -4.14736     6.36404     4.49428
   O          -5.35700     7.05520     4.02215
   F          -2.14640     4.98564     3.45963
   N          -2.93533     7.63682     4.37177
   O          -2.15493     9.01800     6.19638
   F          -3.58089     5.52532     2.07411
   S          -1.71554     7.75530     5.56721
   O          -1.69577     6.48783     6.34359
   F          -0.12884     9.00724     3.87162
   F           0.19392     6.90895     3.89897
   C          -0.11893     7.96265     4.74104
   F           0.82337     8.34767     5.56451
   O           6.10660     4.47267    -2.91342
   F           6.75020     6.50785    -0.71282
   C           6.01030     5.51355    -0.27382
   S           5.80290     4.10501    -1.50412
   O           4.70370     3.17970    -1.18362
   F           6.52430     4.97724     0.89874
   N           7.13380     3.07620    -1.24792
   O           9.36660     2.56410    -2.38072
   F           4.79072     5.92967    -0.10145
   S           8.76420     3.63781    -1.52192
   O           8.64340     4.97289    -2.11972
   F           8.92200     3.19510     1.17796
   F           9.36930     5.18169     0.51860
   C           9.52850     3.88566     0.15464
   F          10.82143     3.52473     0.12036
   O           3.29751     4.31812     1.43708
   F           1.46872     3.94393    -1.31222
   C           1.00201     4.22543    -0.06938
   S           2.08893     3.55729     1.18744
   O           2.30027     2.15370     0.95976
   F           0.98780     5.60047    -0.05770
   N           1.22994     3.46120     2.67176
   O           2.50243     5.34853     3.95315
   F          -0.22968     3.73226    -0.01647
   S           1.87589     4.00262     4.11612
   O           0.58116     4.00551     4.86699
   F           2.28158     1.52750     4.83684
   F           3.42374     2.93320     5.87823
   C           2.97356     2.67850     4.70775
   F           4.07730     2.45050     3.87331
   O           7.71570    -6.19953     5.75098
   F           5.54950    -7.71536     7.06871
   C           5.91740    -6.62677     7.68957
   S           7.62760    -6.27523     7.21162
   O           8.43260    -7.34990     7.79778
   F           5.09510    -5.62191     7.36603
   N           8.08000    -4.62173     7.81098
   O           8.32080    -5.36922    10.26778
   F           5.85460    -6.86819     8.96506
   S           9.08030    -4.63338     9.22249
   O          10.27560    -5.16239     8.64199
   F           8.09080    -2.34864    10.03798
   F           9.62020    -2.24194     8.44177
   C           9.26870    -2.84738     9.57345
   F          10.33600    -2.69236    10.44598
   O          -2.83125    -0.06440    -5.05812
   H          -3.02075    -0.98800    -4.71932
   H          -3.34353     0.62940    -4.54982
   O          -0.93069     7.61060     0.81564
   H          -1.92443     7.37617     0.90532
   H          -0.39325     7.06078     1.47184
   O           1.91390    -0.82440     0.45815
   H           2.54662    -0.04900     0.54887
   H           1.68393    -1.13190     1.34591
   O          -0.39354    -4.10584    -1.56422
   H           0.37646    -3.60446    -2.02342
   H          -0.14505    -4.86430    -0.88272
   O           0.61417     0.98620    -1.74982
   H           1.64908     0.91520    -1.81462
   H           0.28165     1.21110    -2.72222
   O          -0.68629    -1.49210     5.01094
   H           0.18488    -2.02428     5.16060
   H          -0.84150    -1.47470     4.00158
   O          -3.99234    -4.15035    -1.33832
   H          -3.95326    -3.69139    -0.44442
   H          -4.92534    -4.04342    -1.76302
   O          -1.67771    -5.90418    -3.09042
   H          -1.03564    -5.31846    -2.54102
   H          -1.18661    -6.80288    -3.22672
   O           2.35137    -3.06326    -1.12042
   H           2.31700    -2.25143    -0.52302
   H           2.11822    -3.97232    -0.65862
   O           2.52630     2.84660    -4.03922
   H           2.23460     3.75393    -3.70902
   H           2.67336     2.26910    -3.25092
   O          -6.83040     7.65165    -3.05752
   H          -7.32630     8.18149    -3.79712
   H          -7.22970     6.68770    -2.97612
   O          -2.62775     3.95276     7.08624
   H          -2.04257     4.82425     6.73038
   H          -2.43665     3.24690     6.34898
   O          -3.01918    -7.48148    -5.98708
   H          -2.97320    -6.47884    -6.05029
   H          -2.21817    -7.92339    -6.46139
   O          -6.27250    -7.40810     1.47462
   H          -7.25530    -7.20515     1.80615
   H          -5.95930    -8.37744     1.68630
   O           2.15940     2.09670    -6.93891
   H           2.30738     1.25090    -7.51782
   H           1.13982     2.22120    -6.89505
   O           5.18010     0.48320     7.10661
   H           5.70440     1.31490     6.92081
   H           4.21030     0.77290     7.15409
   O           6.63590     0.66280    -3.14252
   H           7.04380     1.43750    -2.60822
   H           7.31820    -0.11870    -3.20882
   O          -6.67410    -4.47567     3.13120
   H          -6.06150    -3.81811     3.59106
   H          -6.69810    -4.09196     2.20619
   O          -2.73723    -2.76529    -3.49482
   H          -2.67517    -3.34931    -4.38072
   H          -3.23259    -3.34751    -2.80372
   O           6.81050    -6.87786     2.96071
   H           6.38000    -5.95895     3.01651
   H           6.06140    -7.52545     3.09822
   O          -2.53599    -3.60368     7.25858
   H          -2.23134    -4.54952     6.96600
   H          -2.95627    -3.61033     8.17499
   O          -3.36256     4.60304    -4.36082
   H          -3.83192     5.48195    -4.20222
   H          -4.04105     4.07995    -4.94922
   O           6.70970    -0.14340     4.58200
   H           6.97720     0.58250     3.87820
   H           7.67210    -0.36660     4.83385
   O          -5.30330    -6.47476    -0.93222
   H          -6.07040    -6.72445    -1.55972
   H          -5.68620    -6.51929     0.07082
   O          -1.20908     4.66002    -2.79682
   H          -1.74507     4.44195    -3.61932
   H          -0.49193     5.34790    -3.06612
   O          -3.50508     2.16640    -2.94572
   H          -4.38188     1.98620    -2.43442
   H          -3.77338     2.98720    -3.55392
   O          -5.32010     6.08176    -6.52975
   H          -4.66336     6.75807    -6.05700
   H          -6.05220     6.63298    -7.00923
   O           6.82960    -2.90868     6.08920
   H           7.25140    -3.14347     5.17916
   H           7.18970    -3.57502     6.88022
   O          -4.05573    -0.57840    -0.77512
   H          -4.82146    -0.24540    -1.31882
   H          -4.25632    -1.00060     0.12054
   O          -1.29347    -1.70910    -0.74342
   H          -2.26466    -1.43960    -0.99272
   H          -1.14548    -2.73488    -0.89252
   O          -0.73396     1.70240    -3.88362
   H          -1.12967     0.93070    -4.41742
   H          -0.29402     2.38720    -4.57452
   O          -4.35225     6.97411    -3.74602
   H          -5.30230     7.27070    -3.43852
   H          -3.91167     7.52823    -4.51212
   O          -1.58039     1.84870     5.43877
   H          -0.92443     2.42510     4.92252
   H          -1.43884     0.84560     5.28688
   O           4.06689    -1.82070    -2.90122
   H           5.02090    -2.03177    -2.57712
   H           3.40396    -2.33455    -2.35352
   O           0.62933    -5.81706     0.11987
   H          -0.10621    -6.51386     0.24701
   H           1.48459    -6.19933     0.55787
   O          -2.62918     7.13283    -1.63212
   H          -3.15625     6.61122    -2.31742
   H          -1.76237     6.61772    -1.59422
   O          -0.20925    -1.39690    -3.53682
   H          -0.39525    -1.05150    -2.59222
   H          -1.02440    -2.07434    -3.68082
   O           4.64842     6.68334     2.84066
   H           3.91008     6.85207     3.51987
   H           4.54096     5.71842     2.51013
   O           3.14857     0.89500    -1.88212
   H           3.58879     0.21750    -2.52992
   H           3.83416     1.53760    -1.41002
   O          -0.52634     2.44670    -6.88852
   H          -1.09503     3.28580    -6.85787
   H          -1.00565     1.91220    -7.61233
   O          -4.99347    -5.71995     5.28912
   H          -4.06237    -5.80120     4.78601
   H          -4.90114    -5.85961     6.26729
   O           2.93524    -7.33851     0.92912
   H           3.29299    -7.74219     0.11132
   H           3.36105    -7.93692     1.61099
   O          -2.30678     1.55710    -0.37232
   H          -2.58939     2.19840     0.39080
   H          -2.85376     0.73280    -0.49032
   O          -2.21084    -0.09600     7.68271
   H          -2.45318    -0.10280     8.70938
   H          -3.04606     0.20680     7.13885
   O           2.16441    -0.13740    -4.66002
   H           1.98808     0.83330    -4.93362
   H           1.28796    -0.61380    -4.36482
   O           5.11210    -2.84362    -5.83283
   H           5.53090    -3.29965    -5.02672
   H           5.17980    -3.54365    -6.62175
   O          -1.96243    -4.44624    -5.57142
   H          -1.90412    -5.08072    -4.77282
   H          -1.30411    -4.76812    -6.28647
   O          -0.48408     0.98330     1.90194
   H          -0.16584     1.89910     2.29916
   H          -1.41487     0.78080     2.28766
   O           5.06340     0.84040    -5.46782
   H           5.66470     0.54270    -6.31247
   H           5.69140     1.12830    -4.70222
   O           5.39340     3.99740    -5.48912
   H           5.83900     4.64710    -6.18087
   H           5.87750     4.19214    -4.57602
