         341
NSTEP=   3300000   16.9073   16.9207   16.9298
   Li          0.00000     0.00000     0.00000
   Li         -5.37050    -6.44907    -7.28330
   Li          7.14755    -4.26857     4.91037
   Li         -3.53830    -4.40417    -1.76012
   Li          0.94317    -7.24337    -4.07622
   Li          1.61797     4.93641     0.02393
   Li          2.16627     1.69761    -8.27807
   Li          6.82857    -6.16157    -5.25222
   Li         -1.88408    -6.32497     3.01511
   Li         -5.20666     3.46433     6.04274
   Li         -5.57981     6.44076    -0.30822
   Li          3.66847    -4.32707    -5.59272
   Li         -2.47040     7.01780     6.73858
   Li          4.73147     3.33561     6.52924
   O          -1.08473     5.23736     7.77600
   F          -2.48644     2.22273     7.71901
   C          -2.02176     2.91982     8.82678
   S          -0.65753     4.07828     8.45274
   O           0.58447     3.52611     7.93376
   F          -3.02918     3.61217     9.36510
   N          -0.17842     4.58085    10.03888
   O           1.43987     2.52299    10.34318
   F          -1.70271     1.96477     9.74973
   S           1.19847     3.92286    10.85058
   O           2.13377     4.85378    10.18428
   F           2.09697     4.19000    13.36978
   F           0.26157     3.07109    13.12618
   C           0.91667     4.10456    12.64108
   F           0.21446     5.26377    12.89128
   O          -3.85246    -4.43137     7.56337
   F          -1.83433    -2.09747     9.24846
   C          -1.52155    -3.32027     8.77828
   S          -2.89147    -4.50097     8.68559
   O          -3.52615    -4.68347    10.01178
   F          -0.88482    -3.22447     7.58248
   N          -2.00051    -5.91887     8.16182
   O          -3.47431    -7.53027     9.30021
   F          -0.59045    -3.83927     9.71772
   S          -2.06412    -7.48597     8.92755
   O          -1.47091    -8.51167     8.15998
   F           0.21404    -7.30287    10.17398
   F          -1.34016    -8.41907    11.29968
   C          -1.09308    -7.34907    10.50178
   F          -1.36381    -6.23567    11.14428
   O          -3.50830    -6.54397    -0.79882
   F          -1.31113    -9.78937    -0.20092
   C          -1.67787    -8.78767    -1.02032
   S          -2.79681    -7.66937    -0.15452
   O          -2.12495    -7.26127     1.02074
   F          -0.56353    -8.10937    -1.29292
   N          -4.18508    -8.72037     0.27422
   O          -5.29599   -10.12153     1.88760
   F          -2.10442    -9.39197    -2.16122
   S          -5.03198    -8.68357     1.80018
   O          -4.05293    -8.24367     2.73630
   F          -6.99701    -7.30657     3.06452
   F          -7.45333    -8.10067     1.05586
   C          -6.43930    -7.53167     1.79256
   F          -6.05162    -6.39977     1.26141
   O          -5.66574     2.90481     0.29320
   F          -7.22138     0.36019    -0.96422
   C          -6.06752     0.82630    -1.41712
   S          -5.74096     2.58290    -1.15392
   O          -6.55624     3.49001    -1.89792
   F          -5.18576     0.18078    -0.70932
   N          -4.11943     2.77971    -1.81652
   O          -4.24406     5.30536    -1.30962
   F          -5.77236     0.56719    -2.64402
   S          -3.57799     4.34653    -2.20992
   O          -2.15194     4.12797    -1.97402
   F          -3.19184     3.58118    -4.61162
   F          -3.07451     5.78180    -4.35352
   C          -3.71206     4.66716    -3.97942
   F          -5.04345     4.66652    -4.24782
   O           4.37017     6.33327    -2.74242
   F           5.05687     3.33867    -2.71252
   C           5.93737     4.20279    -2.25032
   S           5.69867     5.84592    -3.07752
   O           6.37227     6.13131    -4.38002
   F           5.79687     4.26912    -0.92392
   N           6.78217     6.78137    -2.08532
   O           7.31580     9.30713    -2.08552
   F           7.11567     3.71011    -2.61812
   S           6.20767     8.43253    -1.58432
   O           4.90747     8.82203    -2.12872
   F           5.10877     7.38583     0.59770
   F           6.19927     9.23563     1.02744
   C           6.19667     8.09053     0.30533
   F           7.24864     7.35493     0.78575
   O           5.56677     0.00522     3.67404
   F           7.00697     1.93936     1.35215
   C           6.71567     2.21788     2.65965
   S           5.19667     1.31992     3.23194
   O           4.18857     1.59834     2.23648
   F           7.81603     1.84622     3.37906
   N           4.51217     1.95437     4.78358
   O           2.97157     2.17194     6.42221
   F           6.43957     3.61120     2.75556
   S           2.76887     2.05014     5.02968
   O           2.24707     3.06295     4.12443
   F           2.09237    -0.30417     5.63844
   F           2.69877    -0.22152     3.66189
   C           2.03477     0.44790     4.61783
   F           0.69727     0.66241     4.33731
   O           3.87747    -4.69657    -1.65622
   F           2.78367    -3.79187     1.91705
   C           3.54967    -3.74037     0.78208
   S           3.03757    -4.91327    -0.51652
   O           1.62557    -4.82457    -0.72172
   F           3.48747    -2.45408     0.29650
   N           3.09787    -6.50157     0.09996
   O           1.08477    -6.01597     1.76876
   F           4.79347    -4.01767     1.18828
   S           2.11487    -7.04647     1.48608
   O           1.54077    -8.32087     1.04217
   F           3.86817    -8.36167     3.05290
   F           2.59787    -7.02817     3.95770
   C           3.31357    -7.18417     2.83050
   F           4.30277    -6.29897     2.80964
   O           5.41197    -5.53847     8.25000
   F           2.44647    -6.36307     7.97695
   C           2.95897    -5.36937     7.18996
   S           4.76717    -5.39417     6.91845
   O           5.26867    -4.53047     5.87591
   F           2.24457    -5.36617     6.05006
   N           5.08507    -6.90337     6.21691
   O           4.17027    -8.20227     8.36585
   F           2.67487    -4.22047     7.79134
   S           5.08437    -8.35977     7.20257
   O           4.76147    -9.38137     6.19700
   F           6.74367    -8.12337     9.16952
   F           7.58206    -7.93647     7.27739
   C           6.71037    -8.64937     7.92295
   F           7.05187    -9.96812     7.96261
   O          -4.18891    -4.52437     3.36241
   F          -7.22713    -4.36247     2.65390
   C          -6.62045    -3.38427     3.27702
   S          -5.29470    -4.04877     4.23678
   O          -5.79575    -5.04317     5.18667
   F          -6.01859    -2.62530     2.33659
   N          -4.59103    -2.78731     5.13665
   O          -1.94225    -2.87649     5.07104
   F          -7.59977    -2.73728     4.02951
   S          -3.13827    -2.01645     4.66002
   O          -3.44050    -1.74072     3.21289
   F          -1.92880     0.19418     5.36307
   F          -3.38180    -0.58770     6.89451
   C          -3.09027    -0.48419     5.51246
   F          -4.03145     0.27138     5.00744
   O          -0.34105     6.22909     2.44777
   F           1.08357     7.68173     5.68563
   C           0.92617     6.78094     4.73514
   S          -0.48918     7.01742     3.64656
   O          -0.62097     8.40193     3.24420
   F           2.07417     6.60098     4.08660
   N          -1.95286     6.33342     4.41310
   O          -3.49536     4.31419     5.05741
   F           0.83757     5.64860     5.49762
   S          -2.57791     4.70494     3.98340
   O          -2.99264     4.84905     2.61297
   F          -0.41200     3.72226     2.98739
   F          -1.91213     2.24536     3.55441
   C          -1.33102     3.39092     3.92736
   F          -0.80701     3.10591     5.13912
   O          -5.43341    -6.37437    -4.86782
   F          -6.37885    -7.87037    -1.43882
   C          -5.98478    -7.96417    -2.73512
   S          -5.78148    -6.28677    -3.48622
   O          -5.17356    -5.37327    -2.48922
   F          -4.87144    -8.76247    -2.75412
   N          -7.39066    -5.69847    -3.61552
   O          -6.66453    -3.29987    -3.94922
   F          -6.86351    -8.69047    -3.44772
   S          -7.77390    -4.05097    -3.38462
   O          -9.17375    -4.01477    -3.90272
   F          -9.20513    -4.06687    -1.27252
   F          -7.51526    -2.67385    -1.22392
   C          -7.86475    -3.90367    -1.57532
   F          -7.22420    -4.84737    -0.89132
   O          -5.57519     4.79781     8.19807
   F          -6.18566     8.34003     9.68299
   C          -5.62822     7.09203     9.92857
   S          -5.38439     6.22508     8.30895
   O          -4.10383     6.72475     7.72356
   F          -4.49938     7.42083    10.56248
   N          -6.74060     6.69094     7.36458
   O          -6.44466     8.68483     5.72330
   F          -6.45745     6.41789    10.72758
   S          -6.58378     7.21613     5.70733
   O          -5.47871     6.46730     5.11889
   F          -7.90764     6.63846     3.52596
   F          -9.15375     7.39183     5.02284
   C          -8.04944     6.60317     4.82491
   F          -8.40490     5.36233     5.22847
   O           5.13527     0.98979    -4.94932
   F           5.18697    -0.21701    -1.28202
   C           5.81247    -0.17728    -2.50782
   S           4.60427     0.29249    -3.80482
   O           3.48297     0.95924    -3.19712
   F           6.87187     0.65267    -2.34602
   N           3.93457    -1.12271    -4.57242
   O           2.59997    -3.12697    -4.39102
   F           6.24477    -1.44648    -2.72692
   S           2.41257    -1.77039    -3.88792
   O           2.51827    -1.65609    -2.43622
   F           0.78877    -1.46126    -5.83382
   F           1.27877     0.37279    -4.82562
   C           1.06507    -0.92908    -4.59202
   F          -0.04430    -1.02113    -3.87822
   O           7.46427    -1.58775    -7.82667
   F           8.70171    -0.84867    -5.25762
   C           9.42105    -0.51605    -6.29852
   S           8.42796    -0.44313    -7.75363
   O           9.24760    -0.06884    -8.89918
   F          10.21319     0.62646    -6.12322
   N           7.21241     0.79233    -7.55209
   O           8.68905     2.57831    -8.73958
   F          10.36452    -1.51221    -6.39432
   S           7.42304     2.45397    -8.14049
   O           6.24717     2.82566    -8.97290
   F           7.93823     2.68096    -5.55872
   F           6.24477     3.74497    -6.23912
   C           7.45848     3.45648    -6.60032
   F           8.24016     4.51645    -6.64922
   O           7.59519    -8.10627    -4.86072
   H           7.86189    -8.72867    -5.56602
   H           7.65979    -8.67387    -4.03192
   O          -2.77762    -4.03507    -3.74372
   H          -3.27953    -4.39407    -4.53322
   H          -2.79844    -2.95657    -3.80702
   O          -1.03736    -4.39317     2.31447
   H          -0.04591    -4.56117     2.06610
   H          -1.14977    -3.81937     3.21161
   O          -0.80548     0.22773     1.82046
   H          -1.38836    -0.45833     2.32072
   H          -0.91500     1.10242     2.40286
   O          -6.50734     4.18820     2.60552
   H          -6.39037     5.18701     2.61889
   H          -5.88577     3.70400     1.93707
   O          -1.43134    -4.15227    -0.69132
   H          -0.63928    -4.85897    -0.69612
   H          -1.58492    -3.94607     0.30749
   O           5.47037     5.10258     5.16518
   H           4.99477     5.96167     5.49173
   H           6.45827     5.15757     4.87136
   O          -7.30017     5.85273    -1.23742
   H          -7.23084     4.92733    -1.63842
   H          -8.16613     6.36780    -1.42412
   O          -5.56489     1.98250     7.69490
   H          -5.26993     2.26605     8.59051
   H          -6.55269     1.59797     7.77312
   O           2.06567    -7.56657    -2.44332
   H           2.24467    -7.11127    -1.57322
   H           2.92447    -8.09307    -2.71742
   O          -6.19790    -2.58867     7.60243
   H          -6.16751    -1.54835     7.45145
   H          -5.38911    -3.08187     7.26986
   O          -6.52038    -4.25977    -7.06254
   H          -6.33144    -3.57407    -7.82687
   H          -6.41593    -3.81637    -6.15662
   O          -0.76450     1.99946    -0.71812
   H          -1.24350     2.34288    -1.54732
   H          -0.55588     2.80280    -0.19442
   O           8.42491    -4.21987     6.57531
   H           9.00750    -5.06797     6.39357
   H           9.02368    -3.37447     6.76913
   O           7.81356    -5.35507    -6.93812
   H           7.32095    -5.15907    -7.80327
   H           8.72741    -4.93127    -6.99082
   O          -6.99871     2.82102     5.21391
   H          -7.60672     2.62273     5.96794
   H          -7.52213     3.22997     4.45609
   O          -6.31062    -6.58027     7.71799
   H          -6.84567    -7.40017     7.28886
   H          -5.74532    -6.31207     6.95228
   O          -3.48189    -8.32667     5.57960
   H          -3.82802    -8.53127     4.57873
   H          -3.63741    -7.30517     5.81210
   O          -2.83303     0.21816    -2.82012
   H          -2.58041     1.18422    -3.18092
   H          -3.51238     0.48513    -2.11702
   O           5.14207    -4.95767    -4.19332
   H           5.92707    -4.27207    -4.16422
   H           4.94537    -5.16687    -3.22652
   O           0.60517     0.31885    -8.18619
   H           0.00015     0.84032    -7.56962
   H           0.16184    -0.60549    -8.30803
   O           1.95797     7.65793    -5.17192
   H           1.91047     7.30053    -6.14402
   H           2.10777     6.82348    -4.56462
   O           4.05967     0.87965    -7.85179
   H           5.03427     0.90787    -8.24391
   H           4.03857     0.72185    -6.86252
   O           6.13217    -2.90153     3.51983
   H           5.45477    -3.28477     2.84134
   H           5.94257    -1.91556     3.81510
   O          -4.47623    -3.31107    -0.21332
   H          -5.30407    -3.85797     0.02816
   H          -4.29163    -2.66481     0.52514
   O           3.35367     4.38304     7.74373
   H           3.36957     4.91789     8.59119
   H           2.40507     4.38480     7.31898
   O           5.31937    -2.78131    -6.49842
   H           6.26207    -2.64490    -6.88822
   H           5.11197    -2.03566    -5.88392
   O           2.26897     2.88531    -1.07012
   H           2.76187     2.64255    -1.89302
   H           2.21307     1.95007    -0.58592
   O          -2.03302    -5.63767     5.10458
   H          -2.45553    -4.69937     5.32631
   H          -1.72959    -6.06477     6.02142
   O           5.03997     8.42913    -5.57652
   H           5.28567     7.79133    -6.28122
   H           5.83077     8.34383    -4.92282
   O           1.99667     0.04824    -0.45692
   H           1.97367    -0.64141    -1.19242
   H           2.96367     0.09508    -0.24592
   O           2.12757     6.66837    -1.11952
   H           1.66307     7.60223    -1.14702
   H           3.08697     6.59514    -1.50922
   O           3.23097    -6.43807    -6.05032
   H           3.66717    -7.17827    -5.46312
   H           3.10077    -6.89927    -6.96292
   O           0.30237    -5.24637    -3.51332
   H          -0.61448    -4.70847    -3.61152
   H           0.74237    -4.80627    -2.76062
   O          -3.76783    -1.60492    -4.40072
   H          -4.71089    -1.77405    -4.24522
   H          -3.28397    -0.97042    -3.73042
   O          -1.00951    -1.52197    -1.04402
   H          -1.34942    -1.21487    -1.99432
   H          -1.17490    -2.58675    -0.82292
   O           2.58717     4.36105     1.81133
   H           3.35767     4.62957     2.49165
   H           2.66537     3.36319     1.69244
   O           7.19744    -6.15267     4.03100
   H           6.37387    -6.53937     4.42887
   H           7.41794    -6.84537     3.30572
   O          -0.32560     4.41384     0.28843
   H          -1.33197     4.27474     0.19599
   H          -0.32350     4.94366     1.17419
