         294
NSTEP=         0   15.7932   15.7932   15.7932
   Li          0.00000     0.00000     0.00000
   Li         -7.57715     6.47637     0.09806
   Li         -0.60078    -6.20069     5.71306
   Li         -1.74501     1.61129    -1.72079
   Li          4.41860    -5.60619     7.48476
   Li          7.58465    -4.91759     4.06771
   Li          0.20708     2.22659    -4.43221
   Li         -5.14275     5.72757    -7.86114
   Li         -6.15665    -6.51649    -1.77330
   O          -5.09205     3.56727     7.14346
   F          -3.23501     0.22394     6.70266
   C          -3.64429     1.39056     6.17346
   S          -4.07779     2.58461     7.49516
   O          -2.84501     3.21940     8.04686
   F          -2.60533     1.80160     5.45159
   N          -4.71068     1.75804     8.99146
   O          -4.61761     2.22828    11.26184
   F          -4.67755     1.31085     5.33026
   S          -5.33825     2.77142    10.14936
   O          -5.23995     4.20536     9.78446
   F          -7.56895     3.08079    11.33798
   F          -7.31425     1.12671    10.53286
   C          -7.10435     2.46510    10.27556
   F          -7.86465     2.73142     9.22516
   O          -4.84865    -6.02109     6.48146
   F          -3.77655    -3.56869     7.66766
   C          -3.84598    -3.55249     6.32446
   S          -3.76889    -5.28059     5.76856
   O          -2.41621    -5.53129     6.15716
   F          -4.98815    -2.88379     5.95686
   N          -3.79104    -5.27609     4.01472
   O          -5.17335    -7.43719     3.51447
   F          -2.84057    -2.79199     5.83416
   S          -5.21485    -6.01769     3.28768
   O          -6.14475    -5.18799     4.05636
   F          -4.61923    -6.63189     0.70611
   F          -3.94295    -4.72679     1.39705
   C          -4.90815    -5.60009     1.53978
   F          -6.04565    -5.01679     1.15273
   O           6.69235    -2.79399    -0.84128
   F           6.53585     0.74363     0.75611
   C           6.20715    -0.17744    -0.18334
   S           6.69465    -1.87129     0.23349
   O           5.81575    -2.25199     1.36701
   F           4.88589    -0.17781    -0.28922
   N           8.33265    -1.76899     0.78533
   O           7.88685    -3.31859     2.72673
   F           6.75235     0.21881    -1.36537
   S           8.63855    -2.06279     2.42373
   O          10.08185    -2.27049     2.55056
   F           8.68015     0.52826     3.35236
   F           8.33635    -0.86148     4.76793
   C           8.08225    -0.66863     3.52348
   F           6.73705    -0.48256     3.49638
   O          -0.20974    -4.14389    -0.20690
   F          -0.32322    -7.19489    -1.47812
   C          -0.01504    -6.11379    -2.14742
   S           0.71219    -4.71589    -1.19934
   O           1.25181    -3.85709    -2.20669
   F           0.80644    -6.65699    -3.09958
   N           1.97511    -5.38529    -0.20116
   O           3.61464    -3.43749    -0.76438
   F          -1.23087    -5.83429    -2.76060
   S           3.63361    -4.85589    -0.38903
   O           4.08384    -5.03799     0.98284
   F           4.55205    -7.16149    -1.13300
   F           5.75455    -5.51999    -1.77394
   C           4.48284    -5.95189    -1.57791
   F           3.94862    -6.04729    -2.73598
   O          -3.25979     6.34730    -6.99154
   F          -1.55602     7.76723    -5.07894
   C          -1.13197     7.94899    -6.32694
   S          -1.87033     6.51948    -7.26234
   O          -1.07174     5.35492    -7.06564
   F          -1.58325     9.10901    -6.86524
   N          -1.82396     6.99635    -8.91854
   O          -0.57733     7.58717   -10.96283
   F           0.19819     8.02240    -6.37674
   S          -0.53572     6.57918    -9.87584
   O           0.66323     6.75646    -9.00674
   F           0.31734     4.47773   -11.21255
   F          -1.83977     4.95410   -11.22865
   C          -0.74584     4.89944   -10.46184
   F          -0.88160     3.97195    -9.46024
   O           2.31583     5.72806    -4.35006
   F           2.02452     4.55453    -0.62762
   C           2.30217     5.47861    -1.59210
   S           2.34933     4.71797    -3.24436
   O           1.44322     3.58156    -3.32149
   F           1.53130     6.62898    -1.42249
   N           3.98789     4.34906    -3.60241
   O           5.85025     3.51118    -2.41260
   F           3.50440     5.93468    -1.19806
   S           4.56718     2.90876    -2.86310
   O           3.57970     2.57818    -1.85353
   F           5.94165     1.18745    -4.37555
   F           4.16700     2.06036    -5.32674
   C           4.69220     1.69029    -4.16656
   F           3.91418     0.64786    -3.74644
   O           5.29095     7.78644     1.56256
   F           2.94666     7.78679     3.93944
   C           2.98899     7.03868     2.82361
   S           4.62524     6.73243     2.36327
   O           4.54206     5.36678     1.89838
   F           2.17483     5.99663     2.94107
   N           5.71855     6.62671     3.66208
   O           5.43785     6.16288     6.07316
   F           2.45599     7.77555     1.88648
   S           5.48745     5.33500     4.82278
   O           4.28633     4.49108     4.71002
   F           6.75635     3.45700     3.76091
   F           7.07275     3.60994     6.07776
   C           6.92475     4.23082     4.84722
   F           7.98395     5.10731     4.71564
   O           3.81278    -0.55531     5.66876
   F           6.08595    -0.00243     8.84166
   C           5.71515    -0.61450     7.70176
   S           4.41407     0.27207     6.67416
   O           4.52095     1.68872     6.27396
   F           6.88355    -0.78203     7.01936
   N           3.08390     0.56140     7.74086
   O           2.25017    -1.82249     7.57646
   F           5.31745    -1.87189     8.00576
   S           1.73610    -0.48566     7.70546
   O           1.09414    -0.11239     8.96516
   F          -0.16125     0.65340     6.42966
   F          -0.26762    -1.40612     6.41316
   C           0.53268    -0.36564     6.30646
   F           1.00097    -0.42762     5.07740
   O          -3.72353     5.27415     1.91523
   F          -0.26615     5.59345     1.87756
   C          -1.31750     5.85519     1.10162
   S          -2.58171     4.63783     1.30696
   O          -2.07107     3.33336     1.69884
   F          -1.72537     7.12618     1.43803
   N          -3.32511     4.14117    -0.22312
   O          -5.75055     4.74082    -0.32348
   F          -0.93987     5.92069    -0.25510
   S          -4.96025     3.49305    -0.26204
   O          -4.75425     2.63429    -1.38929
   F          -6.76605     2.01470     0.84263
   F          -5.49895     2.94725     2.31758
   C          -5.59595     2.46041     1.08438
   F          -4.80765     1.39472     1.19425
   O          -1.70946     2.19714    -3.73929
   H          -2.55742     1.70752    -3.95264
   H          -1.84213     3.19322    -4.01625
   O           3.86609     5.54377    -6.85064
   H           3.51906     4.99430    -7.68114
   H           3.45111     5.09250    -6.00824
   O           2.99638    -1.29951     2.86956
   H           3.44649    -1.10250     3.69891
   H           3.43013    -0.77389     2.12280
   O          -6.61175     6.49223     2.10026
   H          -5.72155     5.99754     2.28949
   H          -6.64835     7.26989     2.73134
   O          -1.75047     4.75315    -4.06257
   H          -1.33096     4.95516    -4.98474
   H          -2.69034     5.20318    -4.01304
   O          -1.96841    -1.83439    -3.93489
   H          -2.83278    -1.72029    -4.49415
   H          -1.31613    -2.16889    -4.63794
   O          -7.69185    -5.05299    -6.22424
   H          -7.48555    -4.06599    -6.46434
   H          -8.38685    -5.07039    -5.44524
   O          -5.51045    -7.55950    -6.63324
   H          -5.70855    -6.53799    -6.72534
   H          -4.62522    -7.89414    -6.28434
   O          -6.34725    -2.43359    -3.83969
   H          -5.93505    -1.47310    -3.70723
   H          -6.68135    -2.45739    -4.75504
   O          -4.05092    -0.88789    -5.81644
   H          -3.27962    -1.12437    -6.52764
   H          -4.31082     0.08079    -6.04124
   O          -3.43144     0.35368    -2.35941
   H          -4.08952     1.04049    -2.66764
   H          -3.88146    -0.15195    -1.63168
   O          -7.21495     6.40250    -7.50204
   H          -8.10775     6.40692    -7.08284
   H          -6.53115     7.14505    -7.19384
   O           5.29165    -4.29549     3.31854
   H           5.36025    -3.47029     2.71418
   H           4.89168    -5.07239     2.82132
   O           6.99575     6.26868    -3.37641
   H           6.85965     6.45624    -4.35638
   H           6.45585     5.50043    -2.94727
   O           2.09692     0.94219     0.19324
   H           2.74571     1.06145    -0.59644
   H           2.43309     1.38651     1.02881
   O           3.80027    -4.78029     5.74966
   H           3.04721    -4.76889     5.15477
   H           4.49838    -4.14279     5.25286
   O          -6.64395     7.28082    -1.92545
   H          -5.84195     6.97336    -2.49041
   H          -7.54225     6.97824    -2.35921
   O          -4.46577    -1.44062    -0.49067
   H          -5.40265    -1.39332     0.01836
   H          -3.80749    -1.46236     0.24830
   O           0.78645    -5.25399     6.91816
   H           1.30226    -5.75629     7.61926
   H           1.23514    -4.34009     6.79316
   O           2.71734     3.64165     7.15966
   H           2.55214     4.17798     6.29696
   H           3.16414     2.74225     6.89686
   O           6.10785    -3.83299    -4.55104
   H           6.37195    -4.65039    -3.97603
   H           5.45525    -3.23119    -4.01263
   O          -7.16795    -4.85939    -2.73256
   H          -7.33475    -4.31959    -1.86449
   H          -6.73535    -4.11309    -3.35666
   O          -4.30352    -6.27189    -2.59537
   H          -4.07140    -5.22459    -2.45484
   H          -3.66419    -6.79949    -3.14802
   O          -7.39345    -7.36609     6.45406
   H          -7.17475    -8.29585     6.50256
   H          -6.56435    -6.91759     6.86246
   O           2.34366    -4.75969    -5.69684
   H           2.65943    -5.68449    -5.21894
   H           1.41708    -4.48709    -5.52074
   O          -6.73345    -2.35499    -6.77104
   H          -5.76265    -2.08429    -6.57374
   H          -7.35955    -1.70589    -7.25964
   O          -2.89358    -1.63886     1.58783
   H          -3.22615    -1.45554     2.49840
   H          -2.77003    -2.65309     1.51316
   O           2.76152    -7.22979     7.74496
   H           2.87124    -7.32379     8.77846
   H           2.68233    -8.17417     7.35366
   O          -4.54305     6.75317     6.26896
   H          -4.42640     7.75077     6.17146
   H          -4.06305     6.41767     5.50596
   O           3.53167     1.92308     2.41747
   H           2.92296     2.22309     3.10821
   H           4.38684     2.41132     2.58329
   O           2.85195    -7.37059    -5.19054
   H           2.21685    -8.14732    -5.05594
   H           3.70445    -7.83283    -4.85924
   O           2.12575    -1.05820    -1.85367
   H           2.15309    -2.05849    -1.75770
   H           2.27702    -0.69295    -0.91805
   O           7.44765    -7.00449     3.59080
   H           6.90025    -7.77152     3.35044
   H           7.79035    -7.25009     4.54530
   O           7.63495    -4.51709     6.23726
   H           7.80575    -5.39059     6.69286
   H           7.61415    -3.89029     6.99206
   O          -3.65917    -3.67979    -2.28516
   H          -4.29204    -3.12719    -1.75518
   H          -2.90291    -3.04849    -2.52304
   O           1.13275     0.40973    -4.00540
   H           1.90139     0.08138    -3.49809
   H           1.08978     0.19194    -4.98614
   O          -0.16019    -5.03019     4.08738
   H          -0.58223    -5.67889     3.39603
   H           0.59712    -4.49709     3.66467
   O           4.80447    -4.50609    -6.61794
   H           3.79600    -4.53189    -6.31344
   H           5.35695    -4.14049    -5.80434
   O           0.42590     2.89592    -6.33374
   H          -0.15621     3.37049    -6.99334
   H           1.30186     2.62771    -6.85064
   O           6.30325     6.61448    -6.06234
   H           5.94155     7.56451    -6.13614
   H           5.51065     6.04373    -6.47334
   O           6.98585     4.75047    -0.33470
   H           6.90775     4.25763    -1.21874
   H           6.45835     4.26118     0.38008
   O          -0.21613     2.84766    -1.07422
   H           0.64741     2.82294    -1.64425
   H          -0.10543     3.60776    -0.40170
   O           7.57545    -7.18929     0.04968
   H           7.01245    -6.70459    -0.61792
   H           7.29365    -6.92669     1.01427
   O           5.71775    -7.30679     7.69516
   H           6.78145    -7.38249     7.61496
   H           5.31085    -8.00112     7.04796
   O          -0.24701    -2.55139    -5.69504
   H           0.63615    -2.29919    -5.34784
   H          -0.27234    -2.09309    -6.61884
   O           1.91129    -3.81539     3.01693
   H           2.41999    -4.44809     2.34874
   H           2.32910    -2.90349     2.94318
   O           0.76613    -1.64811     1.15847
   H           0.60055    -2.61899     0.99741
   H           1.35537    -1.44227     1.95331
   O          -0.71216    -0.20538    -2.05462
   H          -1.52414    -0.66995    -2.35869
   H           0.03031    -0.31557    -2.78459
   O           4.07075    -2.52299    -3.53502
   H           3.53159    -1.80059    -3.94579
   H           4.02300    -2.52409    -2.50165
   O          -1.92866     0.84613     0.64799
   H          -2.20592     1.58937     1.30803
   H          -2.30244    -0.00123     1.05232
